&clm_inparm
 albice = 0.80,0.55
 co2_type = 'diagnostic'
 create_crop_landunit = .false.
 dtime = 1800
 fatmlndfrc = '/users/yangsong3/CESM/input/share/domains/domain.lnd.fv0.9x1.25_gx1v6.090309.nc'
 finidat = 'b40_20th_1d_b08c5cn_139jp.clm2.r.1979-01-01-00000.nc'
 fpftcon = '/users/yangsong3/CESM/input/lnd/clm2/pftdata/pft-physiology.clm40.c130424.nc'
 fpftdyn = '/users/yangsong3/CESM/input/lnd/clm2/surfdata/surfdata.pftdyn_0.9x1.25_simyr1850-2005_c091008.nc'
 fsnowaging = '/users/yangsong3/CESM/input/lnd/clm2/snicardata/snicar_drdt_bst_fit_60_c070416.nc'
 fsnowoptics = '/users/yangsong3/CESM/input/lnd/clm2/snicardata/snicar_optics_5bnd_c090915.nc'
 fsurdat = '/users/yangsong3/CESM/input/lnd/clm2/surfdata/surfdata_0.9x1.25_simyr1850_c110921.nc'
 maxpatch_glcmec = 0
 nsegspc = 20
 urban_hac = 'ON_WASTEHEAT'
 urban_traffic = .false.
/
&ndepdyn_nml
/
#!--------------------------------------------------------------------------------------------------------------------------
#! lnd_in:: Comment:
#! This namelist was created using the following command-line:
#!     /users/yangsong3/CESM/cesm1_2_2/models/lnd/clm/bld/CLM build-namelist -infile /users/yangsong3/L_Zealot/F/AMIP_C5PM_TP_NUDG/Buildconf/clmconf/cesm_namelist -csmdata /users/yangsong3/CESM/input -inputdata /users/yangsong3/L_Zealot/F/AMIP_C5PM_TP_NUDG/Buildconf/clm.input_data_list -ignore_ic_year -namelist &clm_inparm start_ymd = 19790101  / -use_case 20thC_transient -res 0.9x1.25 -clm_start_type startup -l_ncpl 48 -lnd_frac /users/yangsong3/CESM/input/share/domains/domain.lnd.fv0.9x1.25_gx1v6.090309.nc -glc_nec 0 -co2_ppmv 0.000001 -co2_type diagnostic -config /users/yangsong3/L_Zealot/F/AMIP_C5PM_TP_NUDG/Buildconf/clmconf/config_cache.xml
#! For help on options use: /users/yangsong3/CESM/cesm1_2_2/models/lnd/clm/bld/CLM build-namelist -help
#!--------------------------------------------------------------------------------------------------------------------------
